<?xml version='1.0' encoding='UTF-8'?>
<configuration>
  <input>
        <net-file value="avoid_lights.net.xml"/>
    <route-files value="avoid_lights.xml"/>
  </input>
  <num-clients value="1"/>
</configuration>
