<?xml version='1.0' encoding='UTF-8'?>
<configuration>
	<input>
		<net-file value="1551_carla_cavs.net.xml"/>
		<route-files value="1551_carla_cavs.rou.xml"/>
		<additional-files value="1551_carla_cavs.poly.xml"/>
	</input>

	<output>
		<full-output value="carla_full_output.xml"/>
	</output>

	<time>
		<step-length value="0.1"/>
	</time>
	<num-clients value="1"/>
</configuration>
