<?xml version='1.0' encoding='UTF-8'?>
<configuration>
	<input>
		<net-file value="1551_sumo_cavs.net.xml"/>
		<route-files value="1551_sumo_cavs.rou.xml"/>
		<additional-files value="1551_sumo_cavs.poly.xml"/>
	</input>
	<time>
		<step-length value="0.1"/>
	</time>
	<num-clients value="2"/>
</configuration>
